*SPEF "IEEE 1481-1998"
*DESIGN "IOTDF"
*DATE "Mon May  2 12:46:30 2022"
*VENDOR "Cadence Design Systems, Inc."
*PROGRAM "Innovus"
*VERSION "19.12-s087_1"
*DESIGN_FLOW "COUPLING C" "PIN_CAP NONE" "NAME_SCOPE LOCAL"
*DIVIDER /
*DELIMITER :
*BUS_DELIMITER []
*T_UNIT 1 NS
*C_UNIT 1 PF
*R_UNIT 1 OHM
*L_UNIT 1 HENRY

// MMMC spef file for corner 'default_rc_corner'

*NAME_MAP

*1 CTS_7
*2 CTS_6
*3 CTS_3
*4 CTS_2
*5 CTS_1
*6 CTS_5
*7 CTS_4
*8 FE_OFN1848_n1847
*9 FE_OFN24_iot_out_22
*10 FE_OFN23_iot_out_22
*11 FE_OFN21_n1
*12 FE_OFN20_n1847
*13 FE_OFN19_FE_DBTN0_n2117
*14 FE_OFN18_n2407
*15 FE_OFN17_n2407
*16 FE_OFN16_n2407
*17 FE_OFN15_n2407
*18 FE_OFN14_n2407
*19 FE_OFN13_n2407
*20 FE_OFN12_n2407
*21 FE_OFN11_n2372
*22 FE_OFN10_n1847
*23 FE_OFN9_iot_in_0
*24 FE_OFN8_iot_in_1
*25 FE_OFN7_iot_in_2
*26 FE_OFN6_iot_in_3
*27 FE_OFN5_iot_in_4
*28 FE_OFN4_iot_in_5
*29 FE_OFN3_iot_in_6
*30 FE_OFN2_iot_in_7
*31 FE_OFN1_FE_DBTN1_n1827
*32 FE_OFN0_FE_DBTN2_n1826
*33 r415/FE_DBTN3_n437
*34 FE_DBTN2_n1826
*35 FE_DBTN1_n1827
*36 FE_DBTN0_n2117
*37 iot_in[7]
*38 iot_in[6]
*39 iot_in[5]
*40 iot_in[4]
*41 iot_in[3]
*42 iot_in[2]
*43 iot_in[1]
*44 iot_in[0]
*45 fn_sel[2]
*46 fn_sel[1]
*47 fn_sel[0]
*48 iot_out[127]
*49 iot_out[126]
*50 iot_out[125]
*51 iot_out[124]
*52 iot_out[123]
*53 iot_out[122]
*54 iot_out[121]
*55 iot_out[120]
*56 iot_out[119]
*57 iot_out[118]
*58 iot_out[117]
*59 iot_out[116]
*60 iot_out[115]
*61 iot_out[114]
*62 iot_out[113]
*63 iot_out[112]
*64 iot_out[111]
*65 iot_out[110]
*66 iot_out[109]
*67 iot_out[108]
*68 iot_out[107]
*69 iot_out[106]
*70 iot_out[105]
*71 iot_out[104]
*72 iot_out[103]
*73 iot_out[102]
*74 iot_out[101]
*75 iot_out[100]
*76 iot_out[99]
*77 iot_out[98]
*78 iot_out[97]
*79 iot_out[96]
*80 iot_out[95]
*81 iot_out[94]
*82 iot_out[93]
*83 iot_out[92]
*84 iot_out[91]
*85 iot_out[90]
*86 iot_out[89]
*87 iot_out[88]
*88 iot_out[87]
*89 iot_out[86]
*90 iot_out[85]
*91 iot_out[84]
*92 iot_out[83]
*93 iot_out[82]
*94 iot_out[81]
*95 iot_out[80]
*96 iot_out[79]
*97 iot_out[78]
*98 iot_out[77]
*99 iot_out[76]
*100 iot_out[75]
*101 iot_out[74]
*102 iot_out[73]
*103 iot_out[72]
*104 iot_out[71]
*105 iot_out[70]
*106 iot_out[69]
*107 iot_out[68]
*108 iot_out[67]
*109 iot_out[66]
*110 iot_out[65]
*111 iot_out[64]
*112 iot_out[63]
*113 iot_out[62]
*114 iot_out[61]
*115 iot_out[60]
*116 iot_out[59]
*117 iot_out[58]
*118 iot_out[57]
*119 iot_out[56]
*120 iot_out[55]
*121 iot_out[54]
*122 iot_out[53]
*123 iot_out[52]
*124 iot_out[51]
*125 iot_out[50]
*126 iot_out[49]
*127 iot_out[48]
*128 iot_out[47]
*129 iot_out[46]
*130 iot_out[45]
*131 iot_out[44]
*132 iot_out[43]
*133 iot_out[42]
*134 iot_out[41]
*135 iot_out[40]
*136 iot_out[39]
*137 iot_out[38]
*138 iot_out[37]
*139 iot_out[36]
*140 iot_out[35]
*141 iot_out[34]
*142 iot_out[33]
*143 iot_out[32]
*144 iot_out[31]
*145 iot_out[30]
*146 iot_out[29]
*147 iot_out[28]
*148 iot_out[27]
*149 iot_out[26]
*150 iot_out[25]
*151 iot_out[24]
*152 iot_out[23]
*153 iot_out[22]
*154 iot_out[21]
*155 iot_out[20]
*156 iot_out[19]
*157 iot_out[18]
*158 iot_out[17]
*159 iot_out[16]
*160 iot_out[15]
*161 iot_out[14]
*162 iot_out[13]
*163 iot_out[12]
*164 iot_out[11]
*165 iot_out[10]
*166 iot_out[9]
*167 iot_out[8]
*168 iot_out[7]
*169 iot_out[6]
*170 iot_out[5]
*171 iot_out[4]
*172 iot_out[3]
*173 iot_out[2]
*174 iot_out[1]
*175 iot_out[0]
*176 clk
*177 rst
*178 in_en
*179 busy
*180 valid
*181 N85
*182 N86
*183 N87
*184 N88
*185 N89
*186 N90
*187 N91
*188 N92
*189 N93
*190 N94
*191 N95
*192 N96
*193 N97
*194 N98
*195 N99
*196 N100
*197 N101
*198 N102
*199 N103
*200 N104
*201 N105
*202 N106
*203 N107
*204 N108
*205 N109
*206 N110
*207 N111
*208 N112
*209 N113
*210 N114
*211 N115
*212 N116
*213 N117
*214 N118
*215 N119
*216 N120
*217 N121
*218 N122
*219 N123
*220 N124
*221 N125
*222 N126
*223 N127
*224 N128
*225 N129
*226 N130
*227 N131
*228 N132
*229 N133
*230 N134
*231 N135
*232 N136
*233 N137
*234 N138
*235 N139
*236 N140
*237 N141
*238 N142
*239 N143
*240 N144
*241 N145
*242 N146
*243 N147
*244 N148
*245 N149
*246 N150
*247 N151
*248 N152
*249 N153
*250 N154
*251 N155
*252 N156
*253 N157
*254 N158
*255 N159
*256 N160
*257 N161
*258 N162
*259 N163
*260 N164
*261 N165
*262 N166
*263 N167
*264 N168
*265 N169
*266 N170
*267 N171
*268 N172
*269 N173
*270 N174
*271 N175
*272 N176
*273 N177
*274 N178
*275 N179
*276 N180
*277 N181
*278 N182
*279 N183
*280 N184
*281 N185
*282 N186
*283 N187
*284 N188
*285 N189
*286 N190
*287 N191
*288 N192
*289 N193
*290 N194
*291 N195
*292 N196
*293 N197
*294 N198
*295 N199
*296 N200
*297 N201
*298 N202
*299 N203
*300 N204
*301 N205
*302 N206
*303 N207
*304 N208
*305 N209
*306 N210
*307 N211
*308 N212
*309 N213
*310 N214
*311 N215
*312 N367
*313 N371
*314 N384
*315 N385
*316 N540
*317 N569
*318 N570
*319 N692
*320 N693
*321 N696
*322 N702
*323 N709
*324 n376
*325 n377
*326 n378
*327 n379
*328 n380
*329 n381
*330 n382
*331 n383
*332 n384
*333 n385
*334 n386
*335 n387
*336 n388
*337 n389
*338 n390
*339 n391
*340 n392
*341 n393
*342 n394
*343 n395
*344 n396
*345 n397
*346 n398
*347 n399
*348 n400
*349 n401
*350 n402
*351 n403
*352 n404
*353 n405
*354 n406
*355 n407
*356 n408
*357 n409
*358 n410
*359 n411
*360 n412
*361 n413
*362 n414
*363 n415
*364 n416
*365 n417
*366 n418
*367 n419
*368 n420
*369 n421
*370 n422
*371 n423
*372 n424
*373 n425
*374 n426
*375 n427
*376 n428
*377 n429
*378 n430
*379 n431
*380 n432
*381 n433
*382 n434
*383 n435
*384 n436
*385 n437
*386 n438
*387 n439
*388 n440
*389 n441
*390 n442
*391 n443
*392 n444
*393 n445
*394 n446
*395 n447
*396 n448
*397 n449
*398 n450
*399 n451
*400 n452
*401 n453
*402 n454
*403 n455
*404 n456
*405 n457
*406 n458
*407 n459
*408 n460
*409 n461
*410 n462
*411 n463
*412 n464
*413 n465
*414 n466
*415 n467
*416 n468
*417 n469
*418 n470
*419 n471
*420 n472
*421 n473
*422 n474
*423 n475
*424 n476
*425 n477
*426 n478
*427 n479
*428 n480
*429 n481
*430 n482
*431 n483
*432 n484
*433 n485
*434 n486
*435 n487
*436 n488
*437 n489
*438 n490
*439 n491
*440 n492
*441 n493
*442 n494
*443 n495
*444 n496
*445 n497
*446 n498
*447 n499
*448 n500
*449 n501
*450 n502
*451 n503
*452 n504
*453 n505
*454 n506
*455 n507
*456 n508
*457 n509
*458 n510
*459 n511
*460 n512
*461 n513
*462 n514
*463 n515
*464 n516
*465 n517
*466 n518
*467 n519
*468 n520
*469 n521
*470 n522
*471 n523
*472 n524
*473 n525
*474 n526
*475 n527
*476 n528
*477 n529
*478 n530
*479 n531
*480 n532
*481 n533
*482 n534
*483 n535
*484 n536
*485 n537
*486 n538
*487 n539
*488 n540
*489 n541
*490 n542
*491 n543
*492 n544
*493 n545
*494 n546
*495 n547
*496 n548
*497 n549
*498 n550
*499 n551
*500 n552
*501 n553
*502 n554
*503 n555
*504 n556
*505 n557
*506 n558
*507 n559
*508 n560
*509 n561
*510 n562
*511 n563
*512 n564
*513 n565
*514 n566
*515 n567
*516 n568
*517 n569
*518 n570
*519 n571
*520 n572
*521 n573
*522 n574
*523 n575
*524 n576
*525 n577
*526 n578
*527 n579
*528 n580
*529 n581
*530 n582
*531 n583
*532 n584
*533 n585
*534 n586
*535 n587
*536 n588
*537 n589
*538 n590
*539 n591
*540 n592
*541 n593
*542 n594
*543 n595
*544 n596
*545 n597
*546 n598
*547 n599
*548 n600
*549 n601
*550 n602
*551 n603
*552 n604
*553 n605
*554 n606
*555 n607
*556 n608
*557 n609
*558 n610
*559 n611
*560 n612
*561 n613
*562 n614
*563 n615
*564 n616
*565 n617
*566 n618
*567 n619
*568 n620
*569 n621
*570 n622
*571 n623
*572 n624
*573 n625
*574 n626
*575 n627
*576 n628
*577 n629
*578 n630
*579 n631
*580 n632
*581 n633
*582 n634
*583 n645
*584 n646
*585 n647
*586 n648
*587 n649
*588 n650
*589 n651
*590 n653
*591 n656
*592 n657
*593 n658
*594 n659
*595 n660
*596 n661
*597 n662
*598 n663
*599 n664
*600 n665
*601 n666
*602 n667
*603 n668
*604 n669
*605 n670
*606 n671
*607 n672
*608 n673
*609 n674
*610 n675
*611 n676
*612 n677
*613 n678
*614 n679
*615 n680
*616 n681
*617 n682
*618 n683
*619 n684
*620 n685
*621 n686
*622 n687
*623 n688
*624 n689
*625 n690
*626 n691
*627 n692
*628 n693
*629 n694
*630 n695
*631 n696
*632 n697
*633 n698
*634 n699
*635 n700
*636 n701
*637 n702
*638 n703
*639 n704
*640 n705
*641 n706
*642 n707
*643 n708
*644 n709
*645 n710
*646 n711
*647 n712
*648 n713
*649 n714
*650 n715
*651 n716
*652 n717
*653 n718
*654 n719
*655 n720
*656 n721
*657 n722
*658 n723
*659 n724
*660 n725
*661 n726
*662 n727
*663 n728
*664 n729
*665 n730
*666 n731
*667 n732
*668 n733
*669 n734
*670 n735
*671 n736
*672 n737
*673 n738
*674 n739
*675 n740
*676 n741
*677 n742
*678 n743
*679 n744
*680 n745
*681 n746
*682 n747
*683 n748
*684 n749
*685 n750
*686 n751
*687 n752
*688 n753
*689 n754
*690 n755
*691 n756
*692 n757
*693 n758
*694 n759
*695 n760
*696 n761
*697 n762
*698 n763
*699 n764
*700 n765
*701 n766
*702 n767
*703 n768
*704 n769
*705 n770
*706 n771
*707 n772
*708 n773
*709 n774
*710 n775
*711 n776
*712 n777
*713 n778
*714 n779
*715 n780
*716 n781
*717 n782
*718 n783
*719 n786
*720 n787
*721 n788
*722 n789
*723 n790
*724 n791
*725 n792
*726 n793
*727 n794
*728 n795
*729 n796
*730 n797
*731 n798
*732 n799
*733 n800
*734 n801
*735 n802
*736 n803
*737 n804
*738 n805
*739 n806
*740 n807
*741 n808
*742 n809
*743 n810
*744 n811
*745 n812
*746 n813
*747 n814
*748 n815
*749 n816
*750 n817
*751 n818
*752 n819
*753 n820
*754 n821
*755 n822
*756 n823
*757 n824
*758 n825
*759 n826
*760 n827
*761 n828
*762 n829
*763 n830
*764 n831
*765 n832
*766 n833
*767 n834
*768 n835
*769 n836
*770 n837
*771 n838
*772 n839
*773 n840
*774 n841
*775 n842
*776 n843
*777 n844
*778 n845
*779 n846
*780 n847
*781 n848
*782 n849
*783 n850
*784 n851
*785 n852
*786 n853
*787 n854
*788 n855
*789 n856
*790 n857
*791 n858
*792 n859
*793 n860
*794 n861
*795 n862
*796 n863
*797 n864
*798 n865
*799 n866
*800 n867
*801 n868
*802 n869
*803 n870
*804 n871
*805 n872
*806 n873
*807 n874
*808 n875
*809 n876
*810 n877
*811 n878
*812 n879
*813 n880
*814 n881
*815 n882
*816 n883
*817 n884
*818 n885
*819 n886
*820 n887
*821 n888
*822 n889
*823 n890
*824 n891
*825 n892
*826 n893
*827 n894
*828 n895
*829 n896
*830 n897
*831 n898
*832 n899
*833 n900
*834 n901
*835 n902
*836 n903
*837 n904
*838 n905
*839 n906
*840 n907
*841 n908
*842 n909
*843 n910
*844 n911
*845 n912
*846 n913
*847 n914
*848 n915
*849 n916
*850 n917
*851 n918
*852 n919
*853 n920
*854 n921
*855 n922
*856 n923
*857 n924
*858 n925
*859 n926
*860 n927
*861 n928
*862 n929
*863 n930
*864 n931
*865 n932
*866 n933
*867 n934
*868 n935
*869 n936
*870 n937
*871 n938
*872 n939
*873 n940
*874 n941
*875 n942
*876 n943
*877 n944
*878 n945
*879 n946
*880 n947
*881 n948
*882 n949
*883 n950
*884 n951
*885 n952
*886 n953
*887 n954
*888 n955
*889 n956
*890 n957
*891 n958
*892 n959
*893 n960
*894 n961
*895 n962
*896 n963
*897 n964
*898 n965
*899 n966
*900 n967
*901 n968
*902 n969
*903 n970
*904 n971
*905 n972
*906 n973
*907 n974
*908 n975
*909 n976
*910 n977
*911 n978
*912 n979
*913 n980
*914 n981
*915 n982
*916 n983
*917 n984
*918 n985
*919 n986
*920 n987
*921 n988
*922 n989
*923 n990
*924 n991
*925 n992
*926 n993
*927 n994
*928 n995
*929 n996
*930 n997
*931 n998
*932 n999
*933 n1000
*934 n1001
*935 n1002
*936 n1003
*937 n1004
*938 n1005
*939 n1006
*940 n1007
*941 n1008
*942 n1009
*943 n1010
*944 n1011
*945 n1012
*946 n1013
*947 n1014
*948 n1015
*949 n1016
*950 n1017
*951 n1018
*952 n1019
*953 n1020
*954 n1021
*955 n1022
*956 n1023
*957 n1024
*958 n1025
*959 n1026
*960 n1027
*961 n1028
*962 n1029
*963 n1030
*964 n1031
*965 n1032
*966 n1033
*967 n1034
*968 n1035
*969 n1036
*970 n1037
*971 n1038
*972 n1039
*973 n1040
*974 n1041
*975 n1042
*976 n1043
*977 n1044
*978 n1045
*979 n1046
*980 n1047
*981 n1048
*982 n1826
*983 n1827
*984 n1828
*985 n1829
*986 n1830
*987 n1847
*988 n1848
*989 n1849
*990 n1850
*991 n1851
*992 n1852
*993 n1853
*994 n1854
*995 n1855
*996 n1856
*997 n1857
*998 n1858
*999 n1859
*1000 n1860
*1001 n1861
*1002 n1862
*1003 n1863
*1004 n1864
*1005 n1865
*1006 n1866
*1007 n1867
*1008 n1868
*1009 n1869
*1010 n1870
*1011 n1871
*1012 n1872
*1013 n1873
*1014 n1874
*1015 n1875
*1016 n1876
*1017 n1877
*1018 n1878
*1019 n1879
*1020 n1880
*1021 n1881
*1022 n1882
*1023 n1883
*1024 n1884
*1025 n1885
*1026 n1886
*1027 n1887
*1028 n1888
*1029 n1889
*1030 n1890
*1031 n1891
*1032 n1892
*1033 n1893
*1034 n1894
*1035 n1895
*1036 n1896
*1037 n1897
*1038 n1898
*1039 n1899
*1040 n1900
*1041 n1901
*1042 n1902
*1043 n1903
*1044 n1904
*1045 n1905
*1046 n1906
*1047 n1907
*1048 n1908
*1049 n1909
*1050 n1910
*1051 n1911
*1052 n1912
*1053 n1913
*1054 n1914
*1055 n1915
*1056 n1916
*1057 n1917
*1058 n1918
*1059 n1919
*1060 n1920
*1061 n1921
*1062 n1922
*1063 n1923
*1064 n1924
*1065 n1925
*1066 n1926
*1067 n1927
*1068 n1928
*1069 n1929
*1070 n1930
*1071 n1931
*1072 n1932
*1073 n1933
*1074 n1934
*1075 n1935
*1076 n1936
*1077 n1937
*1078 n1938
*1079 n1939
*1080 n1940
*1081 n1941
*1082 n1942
*1083 n1943
*1084 n1944
*1085 n1945
*1086 n1946
*1087 n1947
*1088 n1948
*1089 n1949
*1090 n1950
*1091 n1951
*1092 n1952
*1093 n1953
*1094 n1954
*1095 n1955
*1096 n1956
*1097 n1957
*1098 n1958
*1099 n1959
*1100 n1960
*1101 n1961
*1102 n1962
*1103 n1963
*1104 n1964
*1105 n1965
*1106 n1966
*1107 n1967
*1108 n1968
*1109 n1969
*1110 n1970
*1111 n1971
*1112 n1972
*1113 n1973
*1114 n1974
*1115 n1975
*1116 n1976
*1117 n1977
*1118 n1978
*1119 n1979
*1120 n1980
*1121 n1981
*1122 n1982
*1123 n1983
*1124 n1984
*1125 n1985
*1126 n1986
*1127 n1987
*1128 n1988
*1129 n1989
*1130 n1990
*1131 n1991
*1132 n1992
*1133 n1993
*1134 n1994
*1135 n1995
*1136 n1996
*1137 n1997
*1138 n1998
*1139 n1999
*1140 n2000
*1141 n2001
*1142 n2002
*1143 n2003
*1144 n2004
*1145 n2005
*1146 n2006
*1147 n2007
*1148 n2008
*1149 n2009
*1150 n2010
*1151 n2011
*1152 n2012
*1153 n2013
*1154 n2014
*1155 n2015
*1156 n2016
*1157 n2017
*1158 n2018
*1159 n2019
*1160 n2020
*1161 n2021
*1162 n2022
*1163 n2023
*1164 n2024
*1165 n2025
*1166 n2026
*1167 n2027
*1168 n2028
*1169 n2029
*1170 n2030
*1171 n2031
*1172 n2032
*1173 n2033
*1174 n2034
*1175 n2035
*1176 n2036
*1177 n2037
*1178 n2038
*1179 n2039
*1180 n2040
*1181 n2041
*1182 n2042
*1183 n2043
*1184 n2044
*1185 n2045
*1186 n2046
*1187 n2047
*1188 n2048
*1189 n2049
*1190 n2050
*1191 n2051
*1192 n2052
*1193 n2053
*1194 n2054
*1195 n2055
*1196 n2056
*1197 n2057
*1198 n2058
*1199 n2059
*1200 n2060
*1201 n2061
*1202 n2062
*1203 n2063
*1204 n2064
*1205 n2065
*1206 n2066
*1207 n2067
*1208 n2068
*1209 n2069
*1210 n2070
*1211 n2071
*1212 n2072
*1213 n2073
*1214 n2074
*1215 n2075
*1216 n2076
*1217 n2077
*1218 n2078
*1219 n2079
*1220 n2080
*1221 n2081
*1222 n2082
*1223 n2083
*1224 n2084
*1225 n2085
*1226 n2086
*1227 n2087
*1228 n2088
*1229 n2089
*1230 n2090
*1231 n2091
*1232 n2092
*1233 n2093
*1234 n2094
*1235 n2095
*1236 n2096
*1237 n2097
*1238 n2098
*1239 n2099
*1240 n2100
*1241 n2101
*1242 n2102
*1243 n2103
*1244 n2104
*1245 n2105
*1246 n2106
*1247 n2107
*1248 n2108
*1249 n2109
*1250 n2110
*1251 n2111
*1252 n2112
*1253 n2113
*1254 n2114
*1255 n2115
*1256 n2116
*1257 n2117
*1258 n2118
*1259 n2119
*1260 n2120
*1261 n2121
*1262 n2122
*1263 n2123
*1264 n2124
*1265 n2125
*1266 n2126
*1267 n2127
*1268 n2128
*1269 n2129
*1270 n2130
*1271 n2131
*1272 n2132
*1273 n2133
*1274 n2134
*1275 n2223
*1276 n2224
*1277 n2225
*1278 n2226
*1279 n2227
*1280 n2228
*1281 n2229
*1282 n2230
*1283 n2231
*1284 n2232
*1285 n2233
*1286 n2234
*1287 n2235
*1288 n2236
*1289 n2237
*1290 n2238
*1291 n2239
*1292 n2240
*1293 n2241
*1294 n2242
*1295 n2243
*1296 n2244
*1297 n2245
*1298 n2246
*1299 n2247
*1300 n2248
*1301 n2249
*1302 n2250
*1303 n2251
*1304 n2252
*1305 n2253
*1306 n2254
*1307 n2255
*1308 n2256
*1309 n2257
*1310 n2258
*1311 n2259
*1312 n2260
*1313 n2261
*1314 n2262
*1315 n2263
*1316 n2264
*1317 n2265
*1318 n2266
*1319 n2267
*1320 n2268
*1321 n2269
*1322 n2270
*1323 n2271
*1324 n2272
*1325 n2273
*1326 n2274
*1327 n2275
*1328 n2276
*1329 n2277
*1330 n2278
*1331 n2279
*1332 n2280
*1333 n2281
*1334 n2282
*1335 n2283
*1336 n2284
*1337 n2285
*1338 n2286
*1339 n2287
*1340 n2288
*1341 n2289
*1342 n2290
*1343 n2291
*1344 n2292
*1345 n2293
*1346 n2294
*1347 n2295
*1348 n2296
*1349 n2297
*1350 n2298
*1351 n2299
*1352 n2300
*1353 n2301
*1354 n2302
*1355 n2303
*1356 n2304
*1357 n2305
*1358 n2306
*1359 n2307
*1360 n2308
*1361 n2309
*1362 n2310
*1363 n2311
*1364 n2312
*1365 n2313
*1366 n2314
*1367 n2315
*1368 n2316
*1369 n2317
*1370 n2318
*1371 n2319
*1372 n2320
*1373 n2321
*1374 n2322
*1375 n2323
*1376 n2324
*1377 n2325
*1378 n2326
*1379 n2327
*1380 n2328
*1381 n2329
*1382 n2330
*1383 n2331
*1384 n2332
*1385 n2333
*1386 n2334
*1387 n2335
*1388 n2336
*1389 n2337
*1390 n2338
*1391 n2339
*1392 n2340
*1393 n2341
*1394 n2342
*1395 n2343
*1396 n2344
*1397 n2345
*1398 n2346
*1399 n2347
*1400 n2348
*1401 n2349
*1402 n2350
*1403 n2351
*1404 n2352
*1405 n2353
*1406 n2354
*1407 n2355
*1408 n2356
*1409 n2357
*1410 n2358
*1411 n2359
*1412 n2360
*1413 n2361
*1414 n2362
*1415 n2363
*1416 n2364
*1417 n2365
*1418 n2366
*1419 n2367
*1420 n2368
*1421 n2369
*1422 n2370
*1423 n2371
*1424 n2372
*1425 n2373
*1426 n2374
*1427 n2375
*1428 n2376
*1429 n2377
*1430 n2378
*1431 n2379
*1432 n2380
*1433 n2381
*1434 n2382
*1435 n2383
*1436 n2384
*1437 n2385
*1438 n2386
*1439 n2387
*1440 n2388
*1441 n2389
*1442 n2390
*1443 n2391
*1444 n2392
*1445 n2393
*1446 n2394
*1447 n2395
*1448 n2396
*1449 n2397
*1450 n2398
*1451 n2399
*1452 n2400
*1453 n2401
*1454 n2402
*1455 n2403
*1456 n2404
*1457 n2405
*1458 n2406
*1459 n2407
*1460 n2408
*1461 n2409
*1462 n2410
*1463 n2411
*1464 n2413
*1465 n2415
*1466 n2416
*1467 n2417
*1468 n2418
*1469 n2419
*1470 n2420
*1471 n2422
*1472 n2423
*1473 n2424
*1474 n2426
*1475 n2428
*1476 n2429
*1477 n2430
*1478 n2431
*1479 n2432
*1480 n2433
*1481 n2434
*1482 n2435
*1483 n2436
*1484 n2437
*1485 n2438
*1486 n2439
*1487 n2440
*1488 n2441
*1489 n2442
*1490 n2443
*1491 n2444
*1492 n2445
*1493 n2446
*1494 n2447
*1495 n2448
*1496 n2449
*1497 n2450
*1498 n2451
*1499 n2452
*1500 n2453
*1501 n2454
*1502 n2455
*1503 n2456
*1504 n2457
*1505 n2458
*1506 n2459
*1507 n2460
*1508 n2461
*1509 n2462
*1510 n2463
*1511 n2464
*1512 n2465
*1513 n2466
*1514 n2467
*1515 n2468
*1516 n2469
*1517 n2470
*1518 n2471
*1519 n2472
*1520 n2473
*1521 n2474
*1522 iot_out_tmp[127]
*1523 iot_out_tmp[126]
*1524 iot_out_tmp[125]
*1525 iot_out_tmp[124]
*1526 iot_out_tmp[123]
*1527 iot_out_tmp[122]
*1528 iot_out_tmp[121]
*1529 iot_out_tmp[120]
*1530 iot_out_tmp[119]
*1531 iot_out_tmp[118]
*1532 iot_out_tmp[117]
*1533 iot_out_tmp[116]
*1534 iot_out_tmp[115]
*1535 iot_out_tmp[114]
*1536 iot_out_tmp[113]
*1537 iot_out_tmp[112]
*1538 iot_out_tmp[111]
*1539 iot_out_tmp[110]
*1540 iot_out_tmp[109]
*1541 iot_out_tmp[108]
*1542 iot_out_tmp[107]
*1543 iot_out_tmp[106]
*1544 iot_out_tmp[105]
*1545 iot_out_tmp[104]
*1546 iot_out_tmp[103]
*1547 iot_out_tmp[102]
*1548 iot_out_tmp[101]
*1549 iot_out_tmp[100]
*1550 iot_out_tmp[99]
*1551 iot_out_tmp[98]
*1552 iot_out_tmp[97]
*1553 iot_out_tmp[96]
*1554 iot_out_tmp[95]
*1555 iot_out_tmp[94]
*1556 iot_out_tmp[93]
*1557 iot_out_tmp[92]
*1558 iot_out_tmp[91]
*1559 iot_out_tmp[90]
*1560 iot_out_tmp[89]
*1561 iot_out_tmp[88]
*1562 iot_out_tmp[87]
*1563 iot_out_tmp[86]
*1564 iot_out_tmp[85]
*1565 iot_out_tmp[84]
*1566 iot_out_tmp[83]
*1567 iot_out_tmp[82]
*1568 iot_out_tmp[81]
*1569 iot_out_tmp[80]
*1570 iot_out_tmp[79]
*1571 iot_out_tmp[78]
*1572 iot_out_tmp[77]
*1573 iot_out_tmp[76]
*1574 iot_out_tmp[75]
*1575 iot_out_tmp[74]
*1576 iot_out_tmp[73]
*1577 iot_out_tmp[72]
*1578 iot_out_tmp[71]
*1579 iot_out_tmp[70]
*1580 iot_out_tmp[69]
*1581 iot_out_tmp[68]
*1582 iot_out_tmp[67]
*1583 iot_out_tmp[66]
*1584 iot_out_tmp[65]
*1585 iot_out_tmp[64]
*1586 iot_out_tmp[63]
*1587 iot_out_tmp[62]
*1588 iot_out_tmp[61]
*1589 iot_out_tmp[60]
*1590 iot_out_tmp[59]
*1591 iot_out_tmp[58]
*1592 iot_out_tmp[57]
*1593 iot_out_tmp[56]
*1594 iot_out_tmp[55]
*1595 iot_out_tmp[54]
*1596 iot_out_tmp[53]
*1597 iot_out_tmp[52]
*1598 iot_out_tmp[51]
*1599 iot_out_tmp[50]
*1600 iot_out_tmp[49]
*1601 iot_out_tmp[48]
*1602 iot_out_tmp[47]
*1603 iot_out_tmp[46]
*1604 iot_out_tmp[45]
*1605 iot_out_tmp[44]
*1606 iot_out_tmp[43]
*1607 iot_out_tmp[42]
*1608 iot_out_tmp[41]
*1609 iot_out_tmp[40]
*1610 iot_out_tmp[39]
*1611 iot_out_tmp[38]
*1612 iot_out_tmp[37]
*1613 iot_out_tmp[36]
*1614 iot_out_tmp[35]
*1615 iot_out_tmp[34]
*1616 iot_out_tmp[33]
*1617 iot_out_tmp[32]
*1618 iot_out_tmp[31]
*1619 iot_out_tmp[30]
*1620 iot_out_tmp[29]
*1621 iot_out_tmp[28]
*1622 iot_out_tmp[27]
*1623 iot_out_tmp[26]
*1624 iot_out_tmp[25]
*1625 iot_out_tmp[24]
*1626 iot_out_tmp[23]
*1627 iot_out_tmp[22]
*1628 iot_out_tmp[21]
*1629 iot_out_tmp[20]
*1630 iot_out_tmp[19]
*1631 iot_out_tmp[18]
*1632 iot_out_tmp[17]
*1633 iot_out_tmp[16]
*1634 iot_out_tmp[15]
*1635 iot_out_tmp[14]
*1636 iot_out_tmp[13]
*1637 iot_out_tmp[12]
*1638 iot_out_tmp[11]
*1639 iot_out_tmp[10]
*1640 iot_out_tmp[9]
*1641 iot_out_tmp[8]
*1642 iot_out_tmp[7]
*1643 iot_out_tmp[6]
*1644 iot_out_tmp[5]
*1645 iot_out_tmp[4]
*1646 iot_out_tmp[3]
*1647 iot_out_tmp[2]
*1648 iot_out_tmp[1]
*1649 iot_out_tmp[0]
*1650 sum[130]
*1651 sum[129]
*1652 sum[128]
*1653 sum[127]
*1654 sum[126]
*1655 sum[125]
*1656 sum[124]
*1657 sum[123]
*1658 sum[122]
*1659 sum[121]
*1660 sum[120]
*1661 sum[119]
*1662 sum[118]
*1663 sum[117]
*1664 sum[116]
*1665 sum[115]
*1666 sum[114]
*1667 sum[113]
*1668 sum[112]
*1669 sum[111]
*1670 sum[110]
*1671 sum[109]
*1672 sum[108]
*1673 sum[107]
*1674 sum[106]
*1675 sum[105]
*1676 sum[104]
*1677 sum[103]
*1678 sum[102]
*1679 sum[101]
*1680 sum[100]
*1681 sum[99]
*1682 sum[98]
*1683 sum[97]
*1684 sum[96]
*1685 sum[95]
*1686 sum[94]
*1687 sum[93]
*1688 sum[92]
*1689 sum[91]
*1690 sum[90]
*1691 sum[89]
*1692 sum[88]
*1693 sum[87]
*1694 sum[86]
*1695 sum[85]
*1696 sum[84]
*1697 sum[83]
*1698 sum[82]
*1699 sum[81]
*1700 sum[80]
*1701 sum[79]
*1702 sum[78]
*1703 sum[77]
*1704 sum[76]
*1705 sum[75]
*1706 sum[74]
*1707 sum[73]
*1708 sum[72]
*1709 sum[71]
*1710 sum[70]
*1711 sum[69]
*1712 sum[68]
*1713 sum[67]
*1714 sum[66]
*1715 sum[65]
*1716 sum[64]
*1717 sum[63]
*1718 sum[62]
*1719 sum[61]
*1720 sum[60]
*1721 sum[59]
*1722 sum[58]
*1723 sum[57]
*1724 sum[56]
*1725 sum[55]
*1726 sum[54]
*1727 sum[53]
*1728 sum[52]
*1729 sum[51]
*1730 sum[50]
*1731 sum[49]
*1732 sum[48]
*1733 sum[47]
*1734 sum[46]
*1735 sum[45]
*1736 sum[44]
*1737 sum[43]
*1738 sum[42]
*1739 sum[41]
*1740 sum[40]
*1741 sum[39]
*1742 sum[38]
*1743 sum[37]
*1744 sum[36]
*1745 sum[35]
*1746 sum[34]
*1747 sum[33]
*1748 sum[32]
*1749 sum[31]
*1750 sum[30]
*1751 sum[29]
*1752 sum[28]
*1753 sum[27]
*1754 sum[26]
*1755 sum[25]
*1756 sum[24]
*1757 sum[23]
*1758 sum[22]
*1759 sum[21]
*1760 sum[20]
*1761 sum[19]
*1762 sum[18]
*1763 sum[17]
*1764 sum[16]
*1765 sum[15]
*1766 sum[14]
*1767 sum[13]
*1768 sum[12]
*1769 sum[11]
*1770 sum[10]
*1771 sum[9]
*1772 sum[8]
*1773 sum[7]
*1774 sum[6]
*1775 sum[5]
*1776 sum[4]
*1777 sum[3]
*1778 sum[2]
*1779 sum[1]
*1780 sum[0]
*1781 nx_state[1]
*1782 nx_state[0]
*1783 r415/n1
*1784 r415/n2
*1785 r415/n3
*1786 r415/n4
*1787 r415/n5
*1788 r415/n6
*1789 r415/n7
*1790 r415/n8
*1791 r415/n9
*1792 r415/n10
*1793 r415/n11
*1794 r415/n12
*1795 r415/n13
*1796 r415/n14
*1797 r415/n15
*1798 r415/n16
*1799 r415/n17
*1800 r415/n18
*1801 r415/n19
*1802 r415/n20
*1803 r415/n21
*1804 r415/n22
*1805 r415/n23
*1806 r415/n24
*1807 r415/n25
*1808 r415/n26
*1809 r415/n27
*1810 r415/n28
*1811 r415/n29
*1812 r415/n30
*1813 r415/n31
*1814 r415/n32
*1815 r415/n33
*1816 r415/n34
*1817 r415/n35
*1818 r415/n36
*1819 r415/n37
*1820 r415/n38
*1821 r415/n39
*1822 r415/n40
*1823 r415/n41
*1824 r415/n42
*1825 r415/n43
*1826 r415/n44
*1827 r415/n45
*1828 r415/n46
*1829 r415/n47
*1830 r415/n48
*1831 r415/n49
*1832 r415/n50
*1833 r415/n51
*1834 r415/n52
*1835 r415/n53
*1836 r415/n54
*1837 r415/n55
*1838 r415/n56
*1839 r415/n57
*1840 r415/n58
*1841 r415/n59
*1842 r415/n60
*1843 r415/n61
*1844 r415/n62
*1845 r415/n63
*1846 r415/n64
*1847 r415/n65
*1848 r415/n66
*1849 r415/n67
*1850 r415/n68
*1851 r415/n69
*1852 r415/n70
*1853 r415/n71
*1854 r415/n72
*1855 r415/n73
*1856 r415/n74
*1857 r415/n75
*1858 r415/n76
*1859 r415/n77
*1860 r415/n78
*1861 r415/n79
*1862 r415/n80
*1863 r415/n81
*1864 r415/n82
*1865 r415/n83
*1866 r415/n84
*1867 r415/n85
*1868 r415/n86
*1869 r415/n87
*1870 r415/n88
*1871 r415/n89
*1872 r415/n90
*1873 r415/n91
*1874 r415/n92
*1875 r415/n93
*1876 r415/n94
*1877 r415/n95
*1878 r415/n96
*1879 r415/n97
*1880 r415/n98
*1881 r415/n99
*1882 r415/n100
*1883 r415/n101
*1884 r415/n102
*1885 r415/n103
*1886 r415/n104
*1887 r415/n105
*1888 r415/n106
*1889 r415/n107
*1890 r415/n108
*1891 r415/n109
*1892 r415/n110
*1893 r415/n111
*1894 r415/n112
*1895 r415/n113
*1896 r415/n114
*1897 r415/n115
*1898 r415/n116
*1899 r415/n117
*1900 r415/n118
*1901 r415/n119
*1902 r415/n120
*1903 r415/n121
*1904 r415/n122
*1905 r415/n123
*1906 r415/n124
*1907 r415/n125
*1908 r415/n126
*1909 r415/n127
*1910 r415/n133
*1911 r415/n134
*1912 r415/n135
*1913 r415/n137
*1914 r415/n139
*1915 r415/n140
*1916 r415/n141
*1917 r415/n142
*1918 r415/n143
*1919 r415/n145
*1920 r415/n147
*1921 r415/n148
*1922 r415/n149
*1923 r415/n150
*1924 r415/n151
*1925 r415/n153
*1926 r415/n155
*1927 r415/n156
*1928 r415/n157
*1929 r415/n158
*1930 r415/n159
*1931 r415/n161
*1932 r415/n163
*1933 r415/n164
*1934 r415/n165
*1935 r415/n166
*1936 r415/n167
*1937 r415/n169
*1938 r415/n171
*1939 r415/n172
*1940 r415/n173
*1941 r415/n174
*1942 r415/n175
*1943 r415/n177
*1944 r415/n179
*1945 r415/n180
*1946 r415/n181
*1947 r415/n182
*1948 r415/n183
*1949 r415/n185
*1950 r415/n187
*1951 r415/n188
*1952 r415/n189
*1953 r415/n190
*1954 r415/n191
*1955 r415/n193
*1956 r415/n195
*1957 r415/n196
*1958 r415/n197
*1959 r415/n198
*1960 r415/n199
*1961 r415/n201
*1962 r415/n203
*1963 r415/n204
*1964 r415/n205
*1965 r415/n206
*1966 r415/n207
*1967 r415/n209
*1968 r415/n211
*1969 r415/n212
*1970 r415/n213
*1971 r415/n214
*1972 r415/n215
*1973 r415/n217
*1974 r415/n219
*1975 r415/n220
*1976 r415/n221
*1977 r415/n222
*1978 r415/n223
*1979 r415/n225
*1980 r415/n227
*1981 r415/n228
*1982 r415/n229
*1983 r415/n230
*1984 r415/n231
*1985 r415/n233
*1986 r415/n235
*1987 r415/n236
*1988 r415/n237
*1989 r415/n238
*1990 r415/n239
*1991 r415/n241
*1992 r415/n243
*1993 r415/n244
*1994 r415/n245
*1995 r415/n246
*1996 r415/n247
*1997 r415/n249
*1998 r415/n251
*1999 r415/n252
*2000 r415/n253
*2001 r415/n254
*2002 r415/n255
*2003 r415/n257
*2004 r415/n259
*2005 r415/n260
*2006 r415/n261
*2007 r415/n262
*2008 r415/n263
*2009 r415/n265
*2010 r415/n267
*2011 r415/n268
*2012 r415/n269
*2013 r415/n270
*2014 r415/n271
*2015 r415/n273
*2016 r415/n275
*2017 r415/n276
*2018 r415/n277
*2019 r415/n278
*2020 r415/n279
*2021 r415/n281
*2022 r415/n283
*2023 r415/n284
*2024 r415/n285
*2025 r415/n286
*2026 r415/n287
*2027 r415/n289
*2028 r415/n291
*2029 r415/n292
*2030 r415/n294
*2031 r415/n296
*2032 r415/n298
*2033 r415/n299
*2034 r415/n300
*2035 r415/n301
*2036 r415/n302
*2037 r415/n303
*2038 r415/n305
*2039 r415/n307
*2040 r415/n308
*2041 r415/n309
*2042 r415/n310
*2043 r415/n311
*2044 r415/n312
*2045 r415/n314
*2046 r415/n316
*2047 r415/n317
*2048 r415/n318
*2049 r415/n319
*2050 r415/n320
*2051 r415/n321
*2052 r415/n322
*2053 r415/n323
*2054 r415/n324
*2055 r415/n325
*2056 r415/n326
*2057 r415/n327
*2058 r415/n328
*2059 r415/n329
*2060 r415/n330
*2061 r415/n331
*2062 r415/n332
*2063 r415/n333
*2064 r415/n334
*2065 r415/n335
*2066 r415/n336
*2067 r415/n337
*2068 r415/n338
*2069 r415/n339
*2070 r415/n340
*2071 r415/n341
*2072 r415/n342
*2073 r415/n343
*2074 r415/n344
*2075 r415/n345
*2076 r415/n346
*2077 r415/n347
*2078 r415/n348
*2079 r415/n350
*2080 r415/n352
*2081 r415/n353
*2082 r415/n354
*2083 r415/n355
*2084 r415/n356
*2085 r415/n357
*2086 r415/n358
*2087 r415/n359
*2088 r415/n360
*2089 r415/n361
*2090 r415/n362
*2091 r415/n363
*2092 r415/n364
*2093 r415/n365
*2094 r415/n366
*2095 r415/n367
*2096 r415/n368
*2097 r415/n369
*2098 r415/n370
*2099 r415/n371
*2100 r415/n372
*2101 r415/n373
*2102 r415/n374
*2103 r415/n375
*2104 r415/n376
*2105 r415/n377
*2106 r415/n378
*2107 r415/n379
*2108 r415/n380
*2109 r415/n381
*2110 r415/n382
*2111 r415/n383
*2112 r415/n384
*2113 r415/n385
*2114 r415/n386
*2115 r415/n387
*2116 r415/n388
*2117 r415/n389
*2118 r415/n390
*2119 r415/n391
*2120 r415/n392
*2121 r415/n393
*2122 r415/n394
*2123 r415/n395
*2124 r415/n396
*2125 r415/n397
*2126 r415/n398
*2127 r415/n399
*2128 r415/n400
*2129 r415/n401
*2130 r415/n402
*2131 r415/n403
*2132 r415/n404
*2133 r415/n405
*2134 r415/n406
*2135 r415/n407
*2136 r415/n408
*2137 r415/n409
*2138 r415/n410
*2139 r415/n411
*2140 r415/n412
*2141 r415/n413
*2142 r415/n414
*2143 r415/n415
*2144 r415/n416
*2145 r415/n417
*2146 r415/n418
*2147 r415/n419
*2148 r415/n420
*2149 r415/n421
*2150 r415/n422
*2151 r415/n423
*2152 r415/n424
*2153 r415/n425
*2154 r415/n426
*2155 r415/n427
*2156 r415/n428
*2157 r415/n429
*2158 r415/n430
*2159 r415/n431
*2160 r415/n433
*2161 r415/n434
*2162 r415/n435
*2163 r415/n437
*2164 r415/n438
*2165 r415/n439
*2166 r415/n440
*2167 r415/n441
*2168 r415/n442
*2169 r415/n443
*2170 r415/n444
*2171 r415/n445
*2172 r415/n446
*2173 r415/n447
*2174 r415/n448
*2175 r415/n449
*2176 r415/n450
*2177 r415/n452
*2178 r415/n453
*2179 r415/n454
*2180 r415/n455
*2181 r415/n456
*2182 r415/n457
*2183 r415/n458
*2184 r415/n459
*2185 r415/n460
*2186 r415/n461
*2187 r415/n462
*2188 r415/n464
*2189 r415/n465
*2190 r415/n466
*2191 r415/n467
*2192 r415/n468
*2193 r415/n469
*2194 r415/n470
*2195 r415/n471
*2196 r415/n472
*2197 r415/n473
*2198 r415/n474
*2199 r415/n475
*2200 r415/n477
*2201 r415/n478
*2202 r415/n479
*2203 r415/n480
*2204 r415/n481
*2205 r415/n482
*2206 r415/n483
*2207 r415/n484
*2208 r415/n485
*2209 r415/n486
*2210 r415/n487
*2211 r415/n489
*2212 r415/n490
*2213 r415/n491
*2214 r415/n492
*2215 r415/n493
*2216 r415/n494
*2217 r415/n495
*2218 r415/n496
*2219 r415/n497
*2220 r415/n498
*2221 r415/n499
*2222 r415/n500
*2223 r415/n501
*2224 r415/n502
*2225 r415/n503
*2226 r415/n504
*2227 r415/n506
*2228 r415/n507
*2229 r415/n508
*2230 r415/n509
*2231 r415/n510
*2232 r415/n511
*2233 r415/n512
*2234 r415/n513
*2235 r415/n514
*2236 r415/n515
*2237 r415/n516
*2238 r415/n518
*2239 r415/n519
*2240 r415/n520
*2241 r415/n521
*2242 r415/n522
*2243 r415/n523
*2244 r415/n524
*2245 r415/n525
*2246 r415/n526
*2247 r415/n527
*2248 r415/n528
*2249 r415/n529
*2250 r415/n531